Circuit: * C:\Users\RAYAN\OneDrive\Desktop\DingDong.asc

Direct Newton iteration for .op point succeeded.

Date: Fri Mar 04 21:32:44 2022
Total elapsed time: 0.239 seconds.

tnom = 27
temp = 27
method = modified trap
totiter = 4179
traniter = 4147
tranpoints = 1466
accept = 1364
rejected = 102
matrix size = 29
fillins = 0
solver = Normal
Matrix Compiler1: 846 bytes object code size  0.3/0.1/[0.1]
Matrix Compiler2: 1.70 KB object code size  0.2/0.3/[0.1]

